<routes>
  <vType id="car" length="5" accel="5" decel="10" tau="0.5" speedDev="0.1"/>
  <flow id="f:0_0" departPos="random_free" from="-10114#1" to="-10079" via="10115#2 -10109" begin="0" end="300" vehsPerHour="325" type="car"/>
  <flow id="f:0_1" departPos="random_free" from="10096#1" to="10063" via="10089#3" begin="0" end="300" vehsPerHour="325" type="car"/>
  <flow id="f:1_0" departPos="random_free" from="-10114#1" to="-10079" via="10115#2 -10109" begin="300" end="600" vehsPerHour="325" type="car"/>
  <flow id="f:1_1" departPos="random_free" from="-10114#1" to="-10079" via="-10114#0 10108#0 gneE5" begin="300" end="600" vehsPerHour="325" type="car"/>
  <flow id="f:1_2" departPos="random_free" from="10096#1" to="10063" via="10089#3" begin="300" end="600" vehsPerHour="325" type="car"/>
  <flow id="f:1_3" departPos="random_free" from="-10185#1" to="-10071#3" via="gneE20" begin="300" end="600" vehsPerHour="325" type="car"/>
  <flow id="f:2_0" departPos="random_free" from="-10114#1" to="-10079" via="10115#2 -10109" begin="600" end="900" vehsPerHour="325" type="car"/>
  <flow id="f:2_1" departPos="random_free" from="-10114#1" to="-10079" via="-10114#0 10108#0 gneE5" begin="600" end="900" vehsPerHour="325" type="car"/>
  <flow id="f:2_2" departPos="random_free" from="-10114#1" to="-10079" via="-10114#0 10108#0 10102" begin="600" end="900" vehsPerHour="325" type="car"/>
  <flow id="f:2_3" departPos="random_free" from="-10114#1" to="10076" via="-10114#0 10107 10102" begin="600" end="900" vehsPerHour="325" type="car"/>
  <flow id="f:2_4" departPos="random_free" from="10096#1" to="10063" via="10089#3" begin="600" end="900" vehsPerHour="325" type="car"/>
  <flow id="f:2_5" departPos="random_free" from="-10185#1" to="-10071#3" via="gneE20" begin="600" end="900" vehsPerHour="325" type="car"/>
  <flow id="f:2_6" departPos="random_free" from="10096#1" to="10063" via="10109" begin="600" end="900" vehsPerHour="325" type="car"/>
  <flow id="f:2_7" departPos="random_free" from="-10185#1" to="-10061#5" via="gneE19" begin="600" end="900" vehsPerHour="325" type="car"/>
  <flow id="f:3_0" departPos="random_free" from="-10114#1" to="-10079" via="10115#2 -10109" begin="900" end="1200" vehsPerHour="325" type="car"/>
  <flow id="f:3_1" departPos="random_free" from="-10114#1" to="-10079" via="-10114#0 10108#0 gneE5" begin="900" end="1200" vehsPerHour="325" type="car"/>
  <flow id="f:3_2" departPos="random_free" from="-10114#1" to="-10079" via="-10114#0 10108#0 10102" begin="900" end="1200" vehsPerHour="325" type="car"/>
  <flow id="f:3_3" departPos="random_free" from="-10114#1" to="10076" via="-10114#0 10107 10102" begin="900" end="1200" vehsPerHour="325" type="car"/>
  <flow id="f:3_4" departPos="random_free" from="10096#1" to="10063" via="10089#3" begin="900" end="1200" vehsPerHour="325" type="car"/>
  <flow id="f:3_5" departPos="random_free" from="-10185#1" to="-10071#3" via="gneE20" begin="900" end="1200" vehsPerHour="325" type="car"/>
  <flow id="f:3_6" departPos="random_free" from="10096#1" to="10063" via="10109" begin="900" end="1200" vehsPerHour="325" type="car"/>
  <flow id="f:3_7" departPos="random_free" from="-10185#1" to="-10061#5" via="gneE19" begin="900" end="1200" vehsPerHour="325" type="car"/>
  <flow id="f:3_8" departPos="random_free" from="10052#1" to="10104" via="10181#1 -10089#3" begin="900" end="1200" vehsPerHour="325" type="car"/>
  <flow id="f:3_9" departPos="random_free" from="10061#4" to="-10085" via="10065#2 10102" begin="900" end="1200" vehsPerHour="325" type="car"/>
  <flow id="f:4_0" departPos="random_free" from="-10114#1" to="-10079" via="10115#2 -10109" begin="1200" end="1500" vehsPerHour="325" type="car"/>
  <flow id="f:4_1" departPos="random_free" from="-10114#1" to="-10079" via="-10114#0 10108#0 gneE5" begin="1200" end="1500" vehsPerHour="325" type="car"/>
  <flow id="f:4_2" departPos="random_free" from="-10114#1" to="-10079" via="-10114#0 10108#0 10102" begin="1200" end="1500" vehsPerHour="325" type="car"/>
  <flow id="f:4_3" departPos="random_free" from="-10114#1" to="10076" via="-10114#0 10107 10102" begin="1200" end="1500" vehsPerHour="325" type="car"/>
  <flow id="f:4_4" departPos="random_free" from="10096#1" to="10063" via="10089#3" begin="1200" end="1500" vehsPerHour="325" type="car"/>
  <flow id="f:4_5" departPos="random_free" from="-10185#1" to="-10071#3" via="gneE20" begin="1200" end="1500" vehsPerHour="325" type="car"/>
  <flow id="f:4_6" departPos="random_free" from="10096#1" to="10063" via="10109" begin="1200" end="1500" vehsPerHour="325" type="car"/>
  <flow id="f:4_7" departPos="random_free" from="-10185#1" to="-10061#5" via="gneE19" begin="1200" end="1500" vehsPerHour="325" type="car"/>
  <flow id="f:4_8" departPos="random_free" from="10052#1" to="10104" via="10181#1 -10089#3" begin="1200" end="1500" vehsPerHour="325" type="car"/>
  <flow id="f:4_9" departPos="random_free" from="-10064#9" to="10104" via="-10068 10102" begin="1200" end="1500" vehsPerHour="325" type="car"/>
  <flow id="f:4_10" departPos="random_free" from="10061#4" to="-10085" via="10065#2 10102" begin="1200" end="1500" vehsPerHour="325" type="car"/>
  <flow id="f:4_11" departPos="random_free" from="10071#3" to="10085" via="10065#2 -10064#3" begin="1200" end="1500" vehsPerHour="325" type="car"/>
  <flow id="f:5_0" departPos="random_free" from="-10114#1" to="-10079" via="10115#2 -10109" begin="1500" end="1800" vehsPerHour="325" type="car"/>
  <flow id="f:5_1" departPos="random_free" from="-10114#1" to="-10079" via="-10114#0 10108#0 gneE5" begin="1500" end="1800" vehsPerHour="325" type="car"/>
  <flow id="f:5_2" departPos="random_free" from="-10114#1" to="-10079" via="-10114#0 10108#0 10102" begin="1500" end="1800" vehsPerHour="325" type="car"/>
  <flow id="f:5_3" departPos="random_free" from="-10114#1" to="10076" via="-10114#0 10107 10102" begin="1500" end="1800" vehsPerHour="325" type="car"/>
  <flow id="f:5_4" departPos="random_free" from="10096#1" to="10063" via="10089#3" begin="1500" end="1800" vehsPerHour="325" type="car"/>
  <flow id="f:5_5" departPos="random_free" from="-10185#1" to="-10071#3" via="gneE20" begin="1500" end="1800" vehsPerHour="325" type="car"/>
  <flow id="f:5_6" departPos="random_free" from="10096#1" to="10063" via="10109" begin="1500" end="1800" vehsPerHour="325" type="car"/>
  <flow id="f:5_7" departPos="random_free" from="-10185#1" to="-10061#5" via="gneE19" begin="1500" end="1800" vehsPerHour="325" type="car"/>
  <flow id="f:5_8" departPos="random_free" from="10052#1" to="10104" via="10181#1 -10089#3" begin="1500" end="1800" vehsPerHour="325" type="car"/>
  <flow id="f:5_9" departPos="random_free" from="-10064#9" to="10104" via="-10068 10102" begin="1500" end="1800" vehsPerHour="325" type="car"/>
  <flow id="f:5_10" departPos="random_free" from="-10051#2" to="10043" via="10181#1 gneE4" begin="1500" end="1800" vehsPerHour="325" type="car"/>
  <flow id="f:5_11" departPos="random_free" from="-10064#9" to="-10110" via="-10064#4 -10064#3" begin="1500" end="1800" vehsPerHour="325" type="car"/>
  <flow id="f:5_12" departPos="random_free" from="10061#4" to="-10085" via="10065#2 10102" begin="1500" end="1800" vehsPerHour="325" type="car"/>
  <flow id="f:5_13" departPos="random_free" from="10071#3" to="10085" via="10065#2 -10064#3" begin="1500" end="1800" vehsPerHour="325" type="car"/>
  <flow id="f:5_14" departPos="random_free" from="-10070#1" to="-10086" via="gneE9" begin="1500" end="1800" vehsPerHour="325" type="car"/>
  <flow id="f:5_15" departPos="random_free" from="-10063" to="10085" via="gneE8" begin="1500" end="1800" vehsPerHour="325" type="car"/>
  <flow id="f:6_0" departPos="random_free" from="-10114#1" to="-10079" via="10115#2 -10109" begin="1800" end="2100" vehsPerHour="325" type="car"/>
  <flow id="f:6_1" departPos="random_free" from="-10114#1" to="-10079" via="-10114#0 10108#0 gneE5" begin="1800" end="2100" vehsPerHour="325" type="car"/>
  <flow id="f:6_2" departPos="random_free" from="10096#1" to="10063" via="10089#3" begin="1800" end="2100" vehsPerHour="325" type="car"/>
  <flow id="f:6_3" departPos="random_free" from="-10185#1" to="-10071#3" via="gneE20" begin="1800" end="2100" vehsPerHour="325" type="car"/>
  <flow id="f:6_4" departPos="random_free" from="10052#1" to="10104" via="10181#1 -10089#3" begin="1800" end="2100" vehsPerHour="325" type="car"/>
  <flow id="f:6_5" departPos="random_free" from="-10064#9" to="10104" via="-10068 10102" begin="1800" end="2100" vehsPerHour="325" type="car"/>
  <flow id="f:6_6" departPos="random_free" from="-10051#2" to="10043" via="10181#1 gneE4" begin="1800" end="2100" vehsPerHour="325" type="car"/>
  <flow id="f:6_7" departPos="random_free" from="-10064#9" to="-10110" via="-10064#4 -10064#3" begin="1800" end="2100" vehsPerHour="325" type="car"/>
  <flow id="f:6_8" departPos="random_free" from="10061#4" to="-10085" via="10065#2 10102" begin="1800" end="2100" vehsPerHour="325" type="car"/>
  <flow id="f:6_9" departPos="random_free" from="10071#3" to="10085" via="10065#2 -10064#3" begin="1800" end="2100" vehsPerHour="325" type="car"/>
  <flow id="f:6_10" departPos="random_free" from="-10070#1" to="-10086" via="gneE9" begin="1800" end="2100" vehsPerHour="325" type="car"/>
  <flow id="f:6_11" departPos="random_free" from="-10063" to="10085" via="gneE8" begin="1800" end="2100" vehsPerHour="325" type="car"/>
  <flow id="f:7_0" departPos="random_free" from="-10114#1" to="-10079" via="10115#2 -10109" begin="2100" end="2400" vehsPerHour="325" type="car"/>
  <flow id="f:7_1" departPos="random_free" from="10096#1" to="10063" via="10089#3" begin="2100" end="2400" vehsPerHour="325" type="car"/>
  <flow id="f:7_2" departPos="random_free" from="10052#1" to="10104" via="10181#1 -10089#3" begin="2100" end="2400" vehsPerHour="325" type="car"/>
  <flow id="f:7_3" departPos="random_free" from="-10064#9" to="10104" via="-10068 10102" begin="2100" end="2400" vehsPerHour="325" type="car"/>
  <flow id="f:7_4" departPos="random_free" from="-10051#2" to="10043" via="10181#1 gneE4" begin="2100" end="2400" vehsPerHour="325" type="car"/>
  <flow id="f:7_5" departPos="random_free" from="-10064#9" to="-10110" via="-10064#4 -10064#3" begin="2100" end="2400" vehsPerHour="325" type="car"/>
  <flow id="f:7_6" departPos="random_free" from="10061#4" to="-10085" via="10065#2 10102" begin="2100" end="2400" vehsPerHour="325" type="car"/>
  <flow id="f:7_7" departPos="random_free" from="10071#3" to="10085" via="10065#2 -10064#3" begin="2100" end="2400" vehsPerHour="325" type="car"/>
  <flow id="f:7_8" departPos="random_free" from="-10070#1" to="-10086" via="gneE9" begin="2100" end="2400" vehsPerHour="325" type="car"/>
  <flow id="f:7_9" departPos="random_free" from="-10063" to="10085" via="gneE8" begin="2100" end="2400" vehsPerHour="325" type="car"/>
  <flow id="f:8_0" departPos="random_free" from="10052#1" to="10104" via="10181#1 -10089#3" begin="2400" end="2700" vehsPerHour="325" type="car"/>
  <flow id="f:8_1" departPos="random_free" from="-10064#9" to="10104" via="-10068 10102" begin="2400" end="2700" vehsPerHour="325" type="car"/>
  <flow id="f:8_2" departPos="random_free" from="-10051#2" to="10043" via="10181#1 gneE4" begin="2400" end="2700" vehsPerHour="325" type="car"/>
  <flow id="f:8_3" departPos="random_free" from="-10064#9" to="-10110" via="-10064#4 -10064#3" begin="2400" end="2700" vehsPerHour="325" type="car"/>
  <flow id="f:8_4" departPos="random_free" from="10061#4" to="-10085" via="10065#2 10102" begin="2400" end="2700" vehsPerHour="325" type="car"/>
  <flow id="f:8_5" departPos="random_free" from="10071#3" to="10085" via="10065#2 -10064#3" begin="2400" end="2700" vehsPerHour="325" type="car"/>
  <flow id="f:8_6" departPos="random_free" from="-10070#1" to="-10086" via="gneE9" begin="2400" end="2700" vehsPerHour="325" type="car"/>
  <flow id="f:8_7" departPos="random_free" from="-10063" to="10085" via="gneE8" begin="2400" end="2700" vehsPerHour="325" type="car"/>
  <flow id="f:9_0" departPos="random_free" from="10052#1" to="10104" via="10181#1 -10089#3" begin="2700" end="3000" vehsPerHour="325" type="car"/>
  <flow id="f:9_1" departPos="random_free" from="-10064#9" to="10104" via="-10068 10102" begin="2700" end="3000" vehsPerHour="325" type="car"/>
  <flow id="f:9_2" departPos="random_free" from="10061#4" to="-10085" via="10065#2 10102" begin="2700" end="3000" vehsPerHour="325" type="car"/>
  <flow id="f:9_3" departPos="random_free" from="10071#3" to="10085" via="10065#2 -10064#3" begin="2700" end="3000" vehsPerHour="325" type="car"/>
  <flow id="f:10_0" departPos="random_free" from="10052#1" to="10104" via="10181#1 -10089#3" begin="3000" end="3300" vehsPerHour="325" type="car"/>
  <flow id="f:10_1" departPos="random_free" from="10061#4" to="-10085" via="10065#2 10102" begin="3000" end="3300" vehsPerHour="325" type="car"/>
</routes>
