<?xml version="1.0" encoding="UTF-8"?>

<!-- generated on Thu Oct 11 23:05:32 2018 by Netedit Version 0.32.0
<?xml version="1.0" encoding="UTF-8"?>

<configuration xmlns:xsi="http://www.w3.org/2001/XMLSchema-instance" xsi:noNamespaceSchemaLocation="http://sumo.dlr.de/xsd/netconvertConfiguration.xsd">

    <input>
        <sumo-net-file value="in/most.net.xml"/>
    </input>

    <output>
        <output-file value="in/most.net.xml"/>
    </output>

    <processing>
        <no-turnarounds value="true"/>
        <offset.disable-normalization value="true"/>
        <lefthand value="false"/>
        <junctions.corner-detail value="5"/>
        <rectangular-lane-cut value="false"/>
        <walkingareas value="false"/>
    </processing>

    <visualisation>
        <registry-viewport value="true"/>
    </visualisation>

</configuration>
-->

<net version="0.27" junctionCornerDetail="5" xmlns:xsi="http://www.w3.org/2001/XMLSchema-instance" xsi:noNamespaceSchemaLocation="http://sumo.dlr.de/xsd/net_file.xsd">

    <location netOffset="-372770.12,-4843872.33" convBoundary="0.00,0.00,827.72,899.45" origBoundary="7.419972,43.736993,7.430138,43.745152" projParameter="+proj=utm +zone=32 +ellps=WGS84 +datum=WGS84 +units=m +no_defs"/>

    <type id="cycleway.lane" allow="bicycle" bikeLaneWidth="1.00"/>
    <type id="cycleway.opposite_lane" allow="bicycle" bikeLaneWidth="1.00"/>
    <type id="cycleway.opposite_track" allow="bicycle" bikeLaneWidth="1.50"/>
    <type id="cycleway.track" allow="bicycle" bikeLaneWidth="1.50"/>
    <type id="highway.bridleway" priority="1" numLanes="1" speed="2.78" allow="bicycle pedestrian" oneway="1" width="2.00"/>
    <type id="highway.bus_guideway" priority="1" numLanes="1" speed="8.33" allow="bus" oneway="1"/>
    <type id="highway.cycleway" priority="1" numLanes="1" speed="5.56" allow="bicycle" oneway="0" width="2.00"/>
    <type id="highway.footway" priority="1" numLanes="1" speed="2.78" allow="pedestrian" oneway="1" width="2.00"/>
    <type id="highway.ford" priority="1" numLanes="1" speed="2.78" allow="army" oneway="0"/>
    <type id="highway.living_street" priority="3" numLanes="1" speed="2.78" disallow="tram rail_urban rail rail_electric ship" oneway="0"/>
    <type id="highway.motorway" priority="13" numLanes="3" speed="27.78" allow="private emergency authority army vip passenger hov taxi bus coach delivery truck trailer motorcycle evehicle custom1 custom2" oneway="1"/>
    <type id="highway.motorway_bridge" priority="13" numLanes="3" speed="44.44" allow="private emergency authority army vip passenger hov taxi bus coach delivery truck trailer motorcycle evehicle custom1 custom2" oneway="1"/>
    <type id="highway.motorway_link" priority="12" numLanes="1" speed="16.67" allow="private emergency authority army vip passenger hov taxi bus coach delivery truck trailer motorcycle evehicle custom1 custom2" oneway="1"/>
    <type id="highway.motorway_tunnel" priority="13" numLanes="3" speed="44.44" allow="private emergency authority army vip passenger hov taxi bus coach delivery truck trailer motorcycle evehicle custom1 custom2" oneway="1"/>
    <type id="highway.path" priority="1" numLanes="1" speed="2.78" allow="bicycle pedestrian" oneway="1" width="2.00"/>
    <type id="highway.pedestrian" priority="1" numLanes="1" speed="2.78" allow="bicycle pedestrian" oneway="1" width="2.00"/>
    <type id="highway.primary" priority="9" numLanes="2" speed="13.89" disallow="tram rail_urban rail rail_electric bicycle pedestrian ship" oneway="0" sidewalkWidth="2.00"/>
    <type id="highway.primary_bridge" priority="9" numLanes="2" speed="27.78" disallow="tram rail_urban rail rail_electric bicycle pedestrian ship" oneway="0" sidewalkWidth="2.00"/>
    <type id="highway.primary_link" priority="8" numLanes="1" speed="13.89" disallow="tram rail_urban rail rail_electric bicycle pedestrian ship" oneway="0" sidewalkWidth="2.00"/>
    <type id="highway.primary_tunnel" priority="9" numLanes="2" speed="27.78" disallow="tram rail_urban rail rail_electric bicycle pedestrian ship" oneway="0"/>
    <type id="highway.raceway" priority="14" numLanes="2" speed="83.33" allow="vip" oneway="0"/>
    <type id="highway.residential" priority="4" numLanes="1" speed="13.89" disallow="tram rail_urban rail rail_electric ship" oneway="0" sidewalkWidth="1.50"/>
    <type id="highway.residential_bridge" priority="4" numLanes="1" speed="13.89" disallow="tram rail_urban rail rail_electric ship" oneway="0" sidewalkWidth="1.50"/>
    <type id="highway.residential_tunnel" priority="4" numLanes="1" speed="13.89" disallow="tram rail_urban rail rail_electric ship" oneway="0" sidewalkWidth="1.50"/>
    <type id="highway.secondary" priority="7" numLanes="2" speed="13.89" disallow="tram rail_urban rail rail_electric pedestrian ship" oneway="0" sidewalkWidth="1.50"/>
    <type id="highway.secondary_bridge" priority="7" numLanes="2" speed="27.78" disallow="tram rail_urban rail rail_electric pedestrian ship" oneway="0" sidewalkWidth="1.50"/>
    <type id="highway.secondary_link" priority="6" numLanes="1" speed="13.89" disallow="tram rail_urban rail rail_electric pedestrian ship" oneway="0" sidewalkWidth="1.50"/>
    <type id="highway.secondary_tunnel" priority="7" numLanes="2" speed="27.78" disallow="tram rail_urban rail rail_electric pedestrian ship" oneway="0"/>
    <type id="highway.service" priority="1" numLanes="1" speed="5.56" disallow="tram rail_urban rail rail_electric ship" oneway="0"/>
    <type id="highway.services" priority="1" numLanes="1" speed="8.33" disallow="tram rail_urban rail rail_electric ship" oneway="0"/>
    <type id="highway.stairs" priority="1" numLanes="1" speed="1.39" allow="pedestrian" oneway="1" width="2.00"/>
    <type id="highway.step" priority="1" numLanes="1" speed="1.39" allow="pedestrian" oneway="1" width="2.00"/>
    <type id="highway.steps" priority="1" numLanes="1" speed="1.39" allow="pedestrian" oneway="1" width="2.00"/>
    <type id="highway.tertiary" priority="6" numLanes="1" speed="13.89" disallow="tram rail_urban rail rail_electric pedestrian ship" oneway="0" sidewalkWidth="1.50"/>
    <type id="highway.tertiary_bridge" priority="6" numLanes="1" speed="22.22" disallow="tram rail_urban rail rail_electric pedestrian ship" oneway="0" sidewalkWidth="1.50"/>
    <type id="highway.tertiary_link" priority="5" numLanes="1" speed="13.89" disallow="tram rail_urban rail rail_electric pedestrian ship" oneway="0" sidewalkWidth="1.50"/>
    <type id="highway.tertiary_tunnel" priority="6" numLanes="1" speed="22.22" disallow="tram rail_urban rail rail_electric pedestrian ship" oneway="0"/>
    <type id="highway.track" priority="1" numLanes="1" speed="5.56" disallow="tram rail_urban rail rail_electric ship" oneway="0"/>
    <type id="highway.trunk" priority="11" numLanes="2" speed="13.89" disallow="tram rail_urban rail rail_electric bicycle pedestrian ship" oneway="0"/>
    <type id="highway.trunk_bridge" priority="11" numLanes="2" speed="27.78" disallow="tram rail_urban rail rail_electric bicycle pedestrian ship" oneway="0"/>
    <type id="highway.trunk_link" priority="10" numLanes="1" speed="13.89" disallow="tram rail_urban rail rail_electric bicycle pedestrian ship" oneway="0"/>
    <type id="highway.trunk_tunnel" priority="11" numLanes="2" speed="27.78" disallow="tram rail_urban rail rail_electric bicycle pedestrian ship" oneway="0"/>
    <type id="highway.unclassified" priority="5" numLanes="1" speed="13.89" disallow="tram rail_urban rail rail_electric ship" oneway="0" sidewalkWidth="1.50"/>
    <type id="highway.unsurfaced" priority="1" numLanes="1" speed="8.33" disallow="tram rail_urban rail rail_electric ship" oneway="0"/>
    <type id="railway.light_rail" priority="15" numLanes="1" speed="27.78" allow="rail_urban" oneway="0"/>
    <type id="railway.preserved" priority="15" numLanes="1" speed="27.78" allow="rail" oneway="0"/>
    <type id="railway.rail" priority="15" numLanes="1" speed="83.33" allow="rail rail_electric" oneway="0"/>
    <type id="railway.subway" priority="15" numLanes="1" speed="27.78" allow="rail_urban" oneway="0"/>
    <type id="railway.tram" priority="15" numLanes="1" speed="13.89" allow="tram" oneway="0"/>

    <edge id=":10026_0" function="internal">
        <lane id=":10026_0_0" index="0" disallow="tram rail_urban rail rail_electric pedestrian ship" speed="16.95" length="23.79" shape="328.16,334.17,70.80 321.17,329.79,70.80 315.26,327.65,70.80 310.43,327.75,70.80 306.67,330.09,70.80"/>
    </edge>
    <edge id=":10026_1" function="internal">
        <lane id=":10026_1_0" index="0" disallow="tram rail_urban rail rail_electric pedestrian ship" speed="20.00" length="28.06" shape="328.16,334.17,70.80 321.33,329.47,70.80 316.37,326.68,70.80 311.19,324.25,70.80 303.70,320.61,70.80"/>
        <lane id=":10026_1_1" index="1" disallow="tram rail_urban rail rail_electric pedestrian ship" speed="20.00" length="28.06" shape="329.73,331.23,70.80 322.88,326.52,70.80 317.91,323.74,70.80 312.71,321.31,70.80 305.20,317.67,70.80"/>
    </edge>
    <edge id=":10026_3" function="internal">
        <lane id=":10026_3_0" index="0" speed="16.95" length="8.84" shape="329.73,331.23,70.80 323.90,325.85,70.80 323.65,324.98,70.80"/>
    </edge>
    <edge id=":10026_14" function="internal">
        <lane id=":10026_14_0" index="0" speed="16.95" length="16.34" shape="323.65,324.98,70.80 322.66,321.57,70.80 325.99,318.39,70.80 333.91,316.31,70.80"/>
    </edge>
    <edge id=":10026_4" function="internal">
        <lane id=":10026_4_0" index="0" disallow="tram rail_urban rail rail_electric pedestrian ship" speed="16.95" length="9.43" shape="334.44,319.84,70.80 331.46,320.57,70.80 330.20,321.74,70.80 330.68,323.33,70.80 332.88,325.36,70.80"/>
    </edge>
    <edge id=":10026_5" function="internal">
        <lane id=":10026_5_0" index="0" disallow="tram rail_urban rail rail_electric pedestrian ship" speed="13.89" length="30.04" shape="334.44,319.84,70.80 328.97,320.69,70.80 321.25,322.47,70.80 313.19,325.49,70.80 306.67,330.09,70.80"/>
    </edge>
    <edge id=":10026_6" function="internal">
        <lane id=":10026_6_0" index="0" disallow="tram rail_urban rail rail_electric pedestrian ship" speed="16.95" length="29.93" shape="334.44,319.84,70.80 329.62,320.72,70.80 322.86,321.50,70.80 314.58,320.91,70.80 305.20,317.67,70.80"/>
    </edge>
    <edge id=":10026_7" function="internal">
        <lane id=":10026_7_0" index="0" speed="16.95" length="26.53" shape="308.20,311.79,70.80 316.43,315.10,70.80 323.56,316.55,70.80 329.45,316.75,70.80 333.91,316.31,70.80"/>
    </edge>
    <edge id=":10026_8" function="internal">
        <lane id=":10026_8_0" index="0" disallow="tram rail_urban rail rail_electric pedestrian ship" speed="20.00" length="28.19" shape="308.20,311.79,70.80 315.75,315.44,70.80 320.98,317.85,70.80 325.99,320.63,70.80 332.88,325.36,70.80"/>
        <lane id=":10026_8_1" index="1" disallow="tram rail_urban rail rail_electric pedestrian ship" speed="20.00" length="28.19" shape="306.70,314.73,70.80 314.23,318.37,70.80 319.44,320.80,70.80 324.44,323.57,70.80 331.30,328.29,70.80"/>
    </edge>
    <edge id=":10026_10" function="internal">
        <lane id=":10026_10_0" index="0" disallow="tram rail_urban rail rail_electric pedestrian ship" speed="16.95" length="5.65" shape="306.70,314.73,70.80 310.32,317.54,70.80 310.67,318.54,70.80"/>
    </edge>
    <edge id=":10026_15" function="internal">
        <lane id=":10026_15_0" index="0" speed="16.95" length="13.07" shape="310.67,318.54,70.80 311.53,321.03,70.80 310.31,325.21,70.80 306.67,330.09,70.80"/>
    </edge>
    <edge id=":10026_11" function="internal">
        <lane id=":10026_11_0" index="0" disallow="tram rail_urban rail rail_electric pedestrian ship" speed="16.95" length="8.60" shape="304.52,327.55,70.80 306.01,325.46,70.80 306.38,323.60,70.80 305.61,321.99,70.80 303.70,320.61,70.80"/>
    </edge>
    <edge id=":10026_12" function="internal">
        <lane id=":10026_12_0" index="0" speed="13.89" length="31.87" shape="304.52,327.55,70.80 311.29,322.81,70.80 319.92,319.47,70.80 328.19,317.35,70.80 333.91,316.31,70.80"/>
    </edge>
    <edge id=":10026_13" function="internal">
        <lane id=":10026_13_0" index="0" disallow="tram rail_urban rail rail_electric pedestrian ship" speed="16.95" length="14.15" shape="304.52,327.55,70.80 310.10,323.40,70.80 316.43,322.13,70.80 317.14,322.30,70.80"/>
    </edge>
    <edge id=":10026_16" function="internal">
        <lane id=":10026_16_0" index="0" speed="16.95" length="15.55" shape="317.14,322.30,70.80 323.50,323.77,70.80 331.30,328.29,70.80"/>
    </edge>
    <edge id=":8738_0" function="internal">
        <lane id=":8738_0_0" index="0" disallow="tram rail_urban rail rail_electric pedestrian ship" speed="13.89" length="9.31" shape="397.67,854.96,140.50 395.59,854.75,140.50 393.71,855.44,140.50 392.04,857.03,140.50 390.56,859.53,140.50"/>
    </edge>
    <edge id=":8738_1" function="internal">
        <lane id=":8738_1_0" index="0" disallow="tram rail_urban rail rail_electric pedestrian ship" speed="13.89" length="12.70" shape="397.67,854.96,140.50 394.08,853.83,140.50 391.65,852.96,140.50 389.25,851.99,140.50 385.78,850.54,140.50"/>
    </edge>
    <edge id=":8738_2" function="internal">
        <lane id=":8738_2_0" index="0" disallow="tram rail_urban rail rail_electric pedestrian ship" speed="13.89" length="12.38" shape="387.04,847.49,140.50 390.43,848.91,140.50 392.76,849.86,140.50 395.13,850.70,140.50 398.64,851.81,140.50"/>
    </edge>
    <edge id=":8738_3" function="internal">
        <lane id=":8738_3_0" index="0" disallow="tram rail_urban rail rail_electric pedestrian ship" speed="13.89" length="5.50" shape="387.04,847.49,140.50 390.13,849.43,140.50 391.09,851.01,140.50"/>
    </edge>
    <edge id=":8738_6" function="internal">
        <lane id=":8738_6_0" index="0" speed="13.89" length="8.92" shape="391.09,851.01,140.50 391.75,852.09,140.50 391.89,855.45,140.50 390.56,859.53,140.50"/>
    </edge>
    <edge id=":8738_4" function="internal">
        <lane id=":8738_4_0" index="0" disallow="tram rail_urban rail rail_electric pedestrian ship" speed="13.89" length="8.31" shape="387.89,857.45,140.50 388.64,855.12,140.50 388.54,853.19,140.50 387.59,851.66,140.50 385.78,850.54,140.50"/>
    </edge>
    <edge id=":8738_5" function="internal">
        <lane id=":8738_5_0" index="0" disallow="tram rail_urban rail rail_electric pedestrian ship" speed="13.89" length="13.44" shape="387.89,857.45,140.50 389.93,854.16,140.50 392.40,852.13,140.50 395.30,851.34,140.50 398.64,851.81,140.50"/>
    </edge>
    <edge id=":8746_0" function="internal">
        <lane id=":8746_0_0" index="0" disallow="tram rail_urban rail rail_electric pedestrian ship" speed="13.89" length="3.29" shape="399.11,574.43,78.20 398.25,573.96,78.20 397.64,573.61,78.20 397.00,573.44,78.20 396.06,573.49,78.20"/>
    </edge>
    <edge id=":8770_0" function="internal">
        <lane id=":8770_0_0" index="0" disallow="tram rail_urban rail rail_electric pedestrian ship" speed="13.89" length="5.16" shape="222.10,545.68,99.90 220.40,540.80,99.90"/>
    </edge>
    <edge id=":8770_1" function="internal">
        <lane id=":8770_1_0" index="0" disallow="tram rail_urban rail rail_electric pedestrian ship" speed="13.89" length="5.32" shape="223.50,539.67,99.90 225.25,544.69,99.90"/>
    </edge>
    <edge id=":8778_0" function="internal">
        <lane id=":8778_0_0" index="0" disallow="tram rail_urban rail rail_electric pedestrian ship" speed="13.89" length="7.39" shape="623.62,844.93,85.50 622.58,843.11,85.50 621.27,841.89,85.50 619.71,841.28,85.50 617.88,841.26,85.50"/>
    </edge>
    <edge id=":8778_1" function="internal">
        <lane id=":8778_1_0" index="0" disallow="tram rail_urban rail rail_electric pedestrian ship" speed="13.89" length="7.59" shape="625.21,836.44,85.50 624.81,838.58,85.50 625.01,840.09,85.50 625.67,841.58,85.50 626.65,843.62,85.50"/>
    </edge>
    <edge id=":8778_2" function="internal">
        <lane id=":8778_2_0" index="0" disallow="tram rail_urban rail rail_electric pedestrian ship" speed="13.89" length="9.27" shape="625.21,836.44,85.50 624.34,838.21,85.50 622.83,839.61,85.50 620.67,840.62,85.50 617.88,841.26,85.50"/>
    </edge>
    <edge id=":8779_0" function="internal">
        <lane id=":8779_0_0" index="0" disallow="tram rail_urban rail rail_electric pedestrian ship" speed="13.89" length="4.82" shape="791.51,841.65,28.00 791.59,843.13,28.00 791.18,843.96,28.00 790.27,844.12,28.00 788.87,843.63,28.00"/>
    </edge>
    <edge id=":8781_0" function="internal">
        <lane id=":8781_0_0" index="0" disallow="tram rail_urban rail rail_electric pedestrian ship" speed="13.89" length="5.28" shape="424.95,654.84,81.90 421.45,650.89,81.90"/>
    </edge>
    <edge id=":8789_0" function="internal">
        <lane id=":8789_0_0" index="0" disallow="tram rail_urban rail rail_electric pedestrian ship" speed="20.00" length="5.00" shape="605.30,554.40,54.50 601.78,550.85,54.50"/>
        <lane id=":8789_0_1" index="1" disallow="tram rail_urban rail rail_electric pedestrian ship" speed="20.00" length="5.00" shape="607.64,552.08,54.50 604.12,548.53,54.50"/>
    </edge>
    <edge id=":8789_2" function="internal">
        <lane id=":8789_2_0" index="0" disallow="tram rail_urban rail rail_electric pedestrian ship" speed="20.00" length="5.00" shape="608.81,543.88,54.50 612.33,547.43,54.50"/>
        <lane id=":8789_2_1" index="1" disallow="tram rail_urban rail rail_electric pedestrian ship" speed="20.00" length="5.00" shape="606.47,546.20,54.50 609.99,549.76,54.50"/>
    </edge>
    <edge id=":8794_0" function="internal">
        <lane id=":8794_0_0" index="0" disallow="tram rail_urban rail rail_electric pedestrian ship" speed="13.89" length="10.47" shape="373.08,209.34,55.30 371.79,207.12,55.30 369.93,205.67,55.30 367.49,204.97,55.30 364.48,205.03,55.30"/>
    </edge>
    <edge id=":8794_1" function="internal">
        <lane id=":8794_1_0" index="0" disallow="tram rail_urban rail rail_electric pedestrian ship" speed="13.89" length="14.74" shape="373.08,209.34,55.30 367.42,195.72,55.30"/>
    </edge>
    <edge id=":8794_2" function="internal">
        <lane id=":8794_2_0" index="0" disallow="tram rail_urban rail rail_electric pedestrian ship" speed="13.89" length="5.67" shape="373.08,209.34,55.30 372.24,205.65,55.30 372.61,203.79,55.30"/>
    </edge>
    <edge id=":8794_12" function="internal">
        <lane id=":8794_12_0" index="0" speed="13.89" length="7.94" shape="372.61,203.79,55.30 372.84,202.68,55.30 374.87,200.45,55.30 378.34,198.94,55.30"/>
    </edge>
    <edge id=":8794_3" function="internal">
        <lane id=":8794_3_0" index="0" disallow="tram rail_urban rail rail_electric pedestrian ship" speed="13.89" length="7.89" shape="379.21,202.13,55.30 377.20,203.00,55.30 376.02,204.30,55.30 375.67,206.01,55.30 376.16,208.15,55.30"/>
    </edge>
    <edge id=":8794_4" function="internal">
        <lane id=":8794_4_0" index="0" disallow="tram rail_urban rail rail_electric pedestrian ship" speed="13.89" length="15.04" shape="379.21,202.13,55.30 374.90,203.27,55.30 371.92,203.95,55.30 368.90,204.44,55.30 364.48,205.03,55.30"/>
    </edge>
    <edge id=":8794_5" function="internal">
        <lane id=":8794_5_0" index="0" disallow="tram rail_urban rail rail_electric pedestrian ship" speed="13.89" length="6.07" shape="379.21,202.13,55.30 375.48,202.54,55.30 373.26,201.90,55.30"/>
    </edge>
    <edge id=":8794_13" function="internal">
        <lane id=":8794_13_0" index="0" speed="13.89" length="8.76" shape="373.26,201.90,55.30 372.27,201.61,55.30 369.58,199.34,55.30 367.42,195.72,55.30"/>
    </edge>
    <edge id=":8794_6" function="internal">
        <lane id=":8794_6_0" index="0" disallow="tram rail_urban rail rail_electric pedestrian ship" speed="13.89" length="10.08" shape="370.44,194.38,55.30 371.93,196.92,55.30 373.74,198.52,55.30 375.88,199.19,55.30 378.34,198.94,55.30"/>
    </edge>
    <edge id=":8794_7" function="internal">
        <lane id=":8794_7_0" index="0" disallow="tram rail_urban rail rail_electric pedestrian ship" speed="13.89" length="14.91" shape="370.44,194.38,55.30 376.16,208.15,55.30"/>
    </edge>
    <edge id=":8794_8" function="internal">
        <lane id=":8794_8_0" index="0" disallow="tram rail_urban rail rail_electric pedestrian ship" speed="13.89" length="6.48" shape="370.44,194.38,55.30 371.61,198.54,55.30 371.21,200.66,55.30"/>
    </edge>
    <edge id=":8794_14" function="internal">
        <lane id=":8794_14_0" index="0" speed="13.89" length="8.58" shape="371.21,200.66,55.30 371.01,201.70,55.30 368.63,203.86,55.30 364.48,205.03,55.30"/>
    </edge>
    <edge id=":8794_9" function="internal">
        <lane id=":8794_9_0" index="0" disallow="tram rail_urban rail rail_electric pedestrian ship" speed="13.89" length="8.54" shape="364.04,201.76,55.30 366.40,201.10,55.30 367.74,199.87,55.30 368.09,198.08,55.30 367.42,195.72,55.30"/>
    </edge>
    <edge id=":8794_10" function="internal">
        <lane id=":8794_10_0" index="0" disallow="tram rail_urban rail rail_electric pedestrian ship" speed="13.89" length="14.60" shape="364.04,201.76,55.30 368.33,201.18,55.30 371.26,200.71,55.30 374.16,200.06,55.30 378.34,198.94,55.30"/>
    </edge>
    <edge id=":8794_11" function="internal">
        <lane id=":8794_11_0" index="0" disallow="tram rail_urban rail rail_electric pedestrian ship" speed="13.89" length="6.94" shape="364.04,201.76,55.30 368.25,201.70,55.30 370.86,202.50,55.30"/>
    </edge>
    <edge id=":8794_15" function="internal">
        <lane id=":8794_15_0" index="0" speed="13.89" length="8.00" shape="370.86,202.50,55.30 371.67,202.74,55.30 374.30,204.90,55.30 376.16,208.15,55.30"/>
    </edge>
    <edge id=":8803_0" function="internal">
        <lane id=":8803_0_0" index="0" disallow="tram rail_urban rail rail_electric pedestrian ship" speed="16.95" length="14.01" shape="356.11,366.46,67.60 354.16,362.90,67.60 352.90,360.40,67.60 351.42,358.05,67.60 348.81,354.98,67.60"/>
        <lane id=":8803_0_1" index="1" disallow="tram rail_urban rail rail_electric pedestrian ship" speed="16.95" length="14.01" shape="358.95,364.77,67.60 356.88,361.03,67.60 355.54,358.41,67.60 353.98,355.95,67.60 351.23,352.73,67.60"/>
    </edge>
    <edge id=":8803_2" function="internal">
        <lane id=":8803_2_0" index="0" disallow="tram rail_urban rail rail_electric pedestrian ship" speed="16.95" length="14.45" shape="356.05,348.23,67.60 366.45,358.10,67.60"/>
        <lane id=":8803_2_1" index="1" disallow="tram rail_urban rail rail_electric pedestrian ship" speed="16.95" length="14.45" shape="353.64,350.48,67.60 364.20,360.52,67.60"/>
    </edge>
    <edge id=":8805_0" function="internal">
        <lane id=":8805_0_0" index="0" allow="bicycle pedestrian" speed="2.78" length="5.04" width="2.00" shape="502.94,407.93,53.20 507.42,410.24,53.20"/>
    </edge>
    <edge id=":8805_1" function="internal">
        <lane id=":8805_1_0" index="0" allow="bicycle pedestrian" speed="2.78" length="4.32" width="2.00" shape="502.94,407.93,53.20 503.79,408.56,53.20 504.29,409.39,53.20 504.46,410.42,53.20 504.29,411.66,53.20"/>
    </edge>
    <edge id=":8810_0" function="internal">
        <lane id=":8810_0_0" index="0" disallow="tram rail_urban rail rail_electric pedestrian ship" speed="13.89" length="5.39" shape="314.07,662.58,101.10 309.76,659.35,101.10"/>
    </edge>
    <edge id=":8810_1" function="internal">
        <lane id=":8810_1_0" index="0" disallow="tram rail_urban rail rail_electric pedestrian ship" speed="13.89" length="5.33" shape="311.73,656.71,101.10 316.01,659.90,101.10"/>
    </edge>
    <edge id=":8821_0" function="internal">
        <lane id=":8821_0_0" index="0" disallow="tram rail_urban rail rail_electric pedestrian ship" speed="18.05" length="0.10" shape="200.91,66.50,23.20 200.83,66.49,23.20"/>
    </edge>
    <edge id=":8821_1" function="internal">
        <lane id=":8821_1_0" index="0" disallow="tram rail_urban rail rail_electric pedestrian ship" speed="18.05" length="0.10" shape="201.23,63.21,23.20 201.15,63.20,23.20"/>
    </edge>
    <edge id=":8828_0" function="internal">
        <lane id=":8828_0_0" index="0" disallow="tram rail_urban rail rail_electric pedestrian ship" speed="13.89" length="4.82" shape="600.80,875.71,99.40 600.70,877.20,99.40 600.19,877.96,99.40 599.27,878.01,99.40 597.94,877.35,99.40"/>
    </edge>
    <edge id=":8830_0" function="internal">
        <lane id=":8830_0_0" index="0" disallow="tram rail_urban rail rail_electric pedestrian ship" speed="13.89" length="4.71" shape="653.09,791.00,76.90 651.96,790.16,76.90 651.19,789.52,76.90 650.34,789.09,76.90 649.01,788.86,76.90"/>
    </edge>
    <edge id=":8852_0" function="internal">
        <lane id=":8852_0_0" index="0" disallow="tram rail_urban rail rail_electric pedestrian ship" speed="13.89" length="5.08" shape="584.31,692.64,66.60 580.03,689.91,66.60"/>
    </edge>
    <edge id=":8852_1" function="internal">
        <lane id=":8852_1_0" index="0" disallow="tram rail_urban rail rail_electric pedestrian ship" speed="13.89" length="5.10" shape="581.79,687.12,66.60 586.09,689.87,66.60"/>
    </edge>
    <edge id=":8859_0" function="internal">
        <lane id=":8859_0_0" index="0" disallow="tram rail_urban rail rail_electric pedestrian ship" speed="20.00" length="6.51" shape="705.60,750.16,64.20 702.78,744.32,64.20"/>
        <lane id=":8859_0_1" index="1" disallow="tram rail_urban rail rail_electric pedestrian ship" speed="20.00" length="6.51" shape="708.58,748.75,64.20 705.75,742.87,64.20"/>
    </edge>
    <edge id=":8859_2" function="internal">
        <lane id=":8859_2_0" index="0" disallow="tram rail_urban rail rail_electric pedestrian ship" speed="20.00" length="6.59" shape="711.67,739.96,64.20 714.54,745.92,64.20"/>
        <lane id=":8859_2_1" index="1" disallow="tram rail_urban rail rail_electric pedestrian ship" speed="20.00" length="6.59" shape="708.71,741.41,64.20 711.56,747.34,64.20"/>
    </edge>
    <edge id=":8876_0" function="internal">
        <lane id=":8876_0_0" index="0" disallow="tram rail_urban rail rail_electric pedestrian ship" speed="8.34" length="6.79" shape="673.90,373.75,34.30 672.86,371.53,34.30 671.84,369.94,34.30 670.82,368.98,34.30 669.82,368.66,34.30"/>
    </edge>
    <edge id=":8876_1" function="internal">
        <lane id=":8876_1_0" index="0" allow="bicycle pedestrian" speed="2.78" length="13.51" width="2.00" shape="673.90,373.75,34.30 672.75,370.42,34.30 672.18,367.22,34.30 672.20,363.99,34.30 672.84,360.54,34.30"/>
    </edge>
    <edge id=":8876_2" function="internal">
        <lane id=":8876_2_0" index="0" disallow="tram rail_urban rail rail_electric pedestrian ship" speed="8.34" length="10.55" shape="673.90,373.75,34.30 672.73,370.08,34.30 672.69,367.49,34.30 673.77,365.98,34.30 675.98,365.54,34.30"/>
    </edge>
    <edge id=":8876_3" function="internal">
        <lane id=":8876_3_0" index="0" disallow="tram rail_urban rail rail_electric pedestrian ship" speed="13.89" length="6.04" shape="675.87,368.84,34.30 669.82,368.66,34.30"/>
    </edge>
    <edge id=":8876_4" function="internal">
        <lane id=":8876_4_0" index="0" allow="bicycle pedestrian" speed="8.34" length="3.72" width="2.00" shape="675.87,368.84,34.30 673.74,368.25,34.30 672.81,367.05,34.30"/>
    </edge>
    <edge id=":8876_7" function="internal">
        <lane id=":8876_7_0" index="0" speed="8.34" length="6.67" width="2.00" shape="672.81,367.05,34.30 672.53,366.67,34.30 672.23,364.10,34.30 672.84,360.54,34.30"/>
    </edge>
    <edge id=":8876_5" function="internal">
        <lane id=":8876_5_0" index="0" allow="bicycle pedestrian" speed="8.34" length="5.96" width="2.00" shape="669.85,365.36,34.30 670.68,365.06,34.30 671.46,364.16,34.30 672.18,362.65,34.30 672.84,360.54,34.30"/>
    </edge>
    <edge id=":8876_6" function="internal">
        <lane id=":8876_6_0" index="0" disallow="tram rail_urban rail rail_electric pedestrian ship" speed="13.89" length="6.13" shape="669.85,365.36,34.30 675.98,365.54,34.30"/>
    </edge>
    <edge id=":8878_0" function="internal">
        <lane id=":8878_0_0" index="0" disallow="tram rail_urban rail rail_electric pedestrian ship" speed="13.89" length="7.80" shape="457.65,692.34,84.70 456.10,691.02,84.70 454.43,690.52,84.70 452.65,690.84,84.70 450.74,691.98,84.70"/>
    </edge>
    <edge id=":8878_1" function="internal">
        <lane id=":8878_1_0" index="0" disallow="tram rail_urban rail rail_electric pedestrian ship" speed="13.89" length="12.71" shape="457.65,692.34,84.70 449.33,682.72,84.70"/>
    </edge>
    <edge id=":8878_2" function="internal">
        <lane id=":8878_2_0" index="0" disallow="tram rail_urban rail rail_electric pedestrian ship" speed="13.89" length="7.72" shape="448.70,689.39,84.70 450.16,687.85,84.70 450.76,686.22,84.70 450.48,684.51,84.70 449.33,682.72,84.70"/>
    </edge>
    <edge id=":8883_0" function="internal">
        <lane id=":8883_0_0" index="0" disallow="tram rail_urban rail rail_electric pedestrian ship" speed="13.89" length="4.82" shape="683.74,875.77,72.20 683.28,877.19,72.20 682.60,877.81,72.20 681.69,877.64,72.20 680.56,876.67,72.20"/>
    </edge>
    <edge id=":8895_0" function="internal">
        <lane id=":8895_0_0" index="0" disallow="tram rail_urban rail rail_electric pedestrian ship" speed="13.89" length="3.94" shape="659.09,768.39,70.60 658.76,767.27,70.60 658.50,766.51,70.60 658.18,765.78,70.60 657.65,764.74,70.60"/>
    </edge>
    <edge id=":8895_1" function="internal">
        <lane id=":8895_1_0" index="0" disallow="tram rail_urban rail rail_electric pedestrian ship" speed="13.89" length="4.55" shape="660.58,763.22,70.60 661.19,764.42,70.60 661.56,765.27,70.60 661.86,766.14,70.60 662.25,767.44,70.60"/>
    </edge>
    <edge id=":8899_0" function="internal">